<?xml version="1.0" encoding="UTF-8"?>
<edges>
  <!-- main road W <-> C <-> E (two-way with 2 lanes each direction) -->
  <edge id="W_C" from="W" to="C" priority="3" numLanes="2" speed="13.89"/>
  <edge id="C_W" from="C" to="W" priority="3" numLanes="2" speed="13.89"/>
  <edge id="C_E" from="C" to="E" priority="3" numLanes="2" speed="13.89"/>
  <edge id="E_C" from="E" to="C" priority="3" numLanes="2" speed="13.89"/>

  <!-- side road S <-> C <-> N (two-way, 1 lane) -->
  <edge id="S_C" from="S" to="C" priority="2" numLanes="1" speed="9.0"/>
  <edge id="C_S" from="C" to="S" priority="2" numLanes="1" speed="9.0"/>
  <edge id="C_N" from="C" to="N" priority="2" numLanes="1" speed="9.0"/>
  <edge id="N_C" from="N" to="C" priority="2" numLanes="1" speed="9.0"/>
</edges>
