<?xml version="1.0" encoding="UTF-8"?>
<nodes>
  <!-- Main road: west to east -->
  <node id="W" x="0.0" y="50.0" type="dead_end"/>
  <node id="C" x="250.0" y="50.0" type="traffic_light"/> 
  <node id="E" x="500.0" y="50.0" type="dead_end"/>

  <!-- Side road: south to north -->
  <node id="S" x="250.0" y="0.0" type="dead_end"/>
  <node id="N" x="250.0" y="100.0" type="dead_end"/>
</nodes>
