<?xml version="1.0" encoding="UTF-8"?>
<routes xmlns:xsi="http://www.w3.org/2001/XMLSchema-instance"
        xsi:noNamespaceSchemaLocation="http://sumo.dlr.de/xsd/routes_file.xsd">

    <vType id="leaderType" maxSpeed="5.00" accel="1.0" decel="2.0" sigma="0.5" length="4.5" />
    <vType id="car" maxSpeed="13.89" accel="3.0" decel="6.0" sigma="0.5" length="4.5" />

    <route id="r1" edges="A0B0" />

    <!-- leader -->
    <vehicle id="leader" type="leaderType" route="r1" depart="0" color="1,0,0" />

    <!-- followers: increase count / adjust depart times to change density -->
    <vehicle id="follower_01" type="car" route="r1" depart="4.0" color="0,0,1" />
    <vehicle id="follower_02" type="car" route="r1" depart="6.0" color="0,0.6,1" />
    <vehicle id="follower_03" type="car" route="r1" depart="8.0" color="0,0.8,0.6" />
    <vehicle id="follower_04" type="car" route="r1" depart="10.0" color="0,1,0" />

    <!-- optional: add more vehicles or use <flow> -->
</routes>
