<?xml version="1.0" encoding="UTF-8"?>

<!-- generated on 2025-12-11 10:58:15 by Eclipse SUMO netconvert Version 1.19.0
<configuration xmlns:xsi="http://www.w3.org/2001/XMLSchema-instance" xsi:noNamespaceSchemaLocation="http://sumo.dlr.de/xsd/netconvertConfiguration.xsd">

    <input>
        <node-files value="nodes.nod.xml"/>
        <edge-files value="edges.edg.xml"/>
        <type-files value="types.typ.xml"/>
    </input>

    <output>
        <output-file value="simple_intersection.net.xml"/>
    </output>

    <tls_building>
        <tls.guess value="true"/>
    </tls_building>

    <report>
        <verbose value="true"/>
    </report>

</configuration>
-->

<net version="1.16" junctionCornerDetail="5" limitTurnSpeed="5.50" xmlns:xsi="http://www.w3.org/2001/XMLSchema-instance" xsi:noNamespaceSchemaLocation="http://sumo.dlr.de/xsd/net_file.xsd">

    <location netOffset="0.00,0.00" convBoundary="0.00,0.00,500.00,100.00" origBoundary="0.00,0.00,500.00,100.00" projParameter="!"/>

    <edge id=":C_0" function="internal">
        <lane id=":C_0_0" index="0" speed="6.51" length="9.03" shape="248.40,60.40 248.05,57.95 247.00,56.20 245.25,55.15 242.80,54.80"/>
    </edge>
    <edge id=":C_1" function="internal">
        <lane id=":C_1_0" index="0" speed="9.00" length="20.80" shape="248.40,60.40 248.40,39.60"/>
    </edge>
    <edge id=":C_2" function="internal">
        <lane id=":C_2_0" index="0" speed="8.67" length="5.56" shape="248.40,60.40 248.95,55.15 249.06,54.89"/>
    </edge>
    <edge id=":C_3" function="internal">
        <lane id=":C_3_0" index="0" speed="3.65" length="1.44" shape="248.40,60.40 249.20,59.20"/>
    </edge>
    <edge id=":C_18" function="internal">
        <lane id=":C_18_0" index="0" speed="8.67" length="11.29" shape="249.06,54.89 250.60,51.40 253.35,49.15 257.20,48.40"/>
    </edge>
    <edge id=":C_19" function="internal">
        <lane id=":C_19_0" index="0" speed="3.65" length="3.23" shape="249.20,59.20 250.00,58.80 250.80,59.20 251.60,60.40"/>
    </edge>
    <edge id=":C_4" function="internal">
        <lane id=":C_4_0" index="0" speed="6.51" length="9.03" shape="257.20,54.80 254.75,55.15 253.00,56.20 251.95,57.95 251.60,60.40"/>
    </edge>
    <edge id=":C_5" function="internal">
        <lane id=":C_5_0" index="0" speed="13.89" length="14.40" shape="257.20,54.80 242.80,54.80"/>
        <lane id=":C_5_1" index="1" speed="13.89" length="14.40" shape="257.20,51.60 242.80,51.60"/>
    </edge>
    <edge id=":C_7" function="internal">
        <lane id=":C_7_0" index="0" speed="8.67" length="3.71" shape="257.20,51.60 253.56,50.89"/>
    </edge>
    <edge id=":C_8" function="internal">
        <lane id=":C_8_0" index="0" speed="3.65" length="1.44" shape="257.20,51.60 256.00,50.80"/>
    </edge>
    <edge id=":C_20" function="internal">
        <lane id=":C_20_0" index="0" speed="8.67" length="13.14" shape="253.56,50.89 253.35,50.85 250.60,48.60 248.95,44.85 248.40,39.60"/>
    </edge>
    <edge id=":C_21" function="internal">
        <lane id=":C_21_0" index="0" speed="3.65" length="3.23" shape="256.00,50.80 255.60,50.00 256.00,49.20 257.20,48.40"/>
    </edge>
    <edge id=":C_9" function="internal">
        <lane id=":C_9_0" index="0" speed="6.51" length="9.03" shape="251.60,39.60 251.95,42.05 253.00,43.80 254.75,44.85 257.20,45.20"/>
    </edge>
    <edge id=":C_10" function="internal">
        <lane id=":C_10_0" index="0" speed="9.00" length="20.80" shape="251.60,39.60 251.60,60.40"/>
    </edge>
    <edge id=":C_11" function="internal">
        <lane id=":C_11_0" index="0" speed="8.67" length="5.56" shape="251.60,39.60 251.05,44.85 250.94,45.11"/>
    </edge>
    <edge id=":C_12" function="internal">
        <lane id=":C_12_0" index="0" speed="3.65" length="1.44" shape="251.60,39.60 250.80,40.80"/>
    </edge>
    <edge id=":C_22" function="internal">
        <lane id=":C_22_0" index="0" speed="8.67" length="11.29" shape="250.94,45.11 249.40,48.60 246.65,50.85 242.80,51.60"/>
    </edge>
    <edge id=":C_23" function="internal">
        <lane id=":C_23_0" index="0" speed="3.65" length="3.23" shape="250.80,40.80 250.00,41.20 249.20,40.80 248.40,39.60"/>
    </edge>
    <edge id=":C_13" function="internal">
        <lane id=":C_13_0" index="0" speed="6.51" length="9.03" shape="242.80,45.20 245.25,44.85 247.00,43.80 248.05,42.05 248.40,39.60"/>
    </edge>
    <edge id=":C_14" function="internal">
        <lane id=":C_14_0" index="0" speed="13.89" length="14.40" shape="242.80,45.20 257.20,45.20"/>
        <lane id=":C_14_1" index="1" speed="13.89" length="14.40" shape="242.80,48.40 257.20,48.40"/>
    </edge>
    <edge id=":C_16" function="internal">
        <lane id=":C_16_0" index="0" speed="8.67" length="3.71" shape="242.80,48.40 246.44,49.11"/>
    </edge>
    <edge id=":C_17" function="internal">
        <lane id=":C_17_0" index="0" speed="3.65" length="1.44" shape="242.80,48.40 244.00,49.20"/>
    </edge>
    <edge id=":C_24" function="internal">
        <lane id=":C_24_0" index="0" speed="8.67" length="13.14" shape="246.44,49.11 246.65,49.15 249.40,51.40 251.05,55.15 251.60,60.40"/>
    </edge>
    <edge id=":C_25" function="internal">
        <lane id=":C_25_0" index="0" speed="3.65" length="3.23" shape="244.00,49.20 244.40,50.00 244.00,50.80 242.80,51.60"/>
    </edge>
    <edge id=":E_0" function="internal">
        <lane id=":E_0_0" index="0" speed="3.65" length="4.67" shape="500.00,48.40 501.20,49.20 501.60,50.00 501.20,50.80 500.00,51.60"/>
    </edge>
    <edge id=":N_0" function="internal">
        <lane id=":N_0_0" index="0" speed="3.65" length="4.67" shape="251.60,100.00 250.80,101.20 250.00,101.60 249.20,101.20 248.40,100.00"/>
    </edge>
    <edge id=":S_0" function="internal">
        <lane id=":S_0_0" index="0" speed="3.65" length="4.67" shape="248.40,0.00 249.20,-1.20 250.00,-1.60 250.80,-1.20 251.60,0.00"/>
    </edge>
    <edge id=":W_0" function="internal">
        <lane id=":W_0_0" index="0" speed="3.65" length="4.67" shape="0.00,51.60 -1.20,50.80 -1.60,50.00 -1.20,49.20 0.00,48.40"/>
    </edge>

    <edge id="C_E" from="C" to="E" priority="3">
        <lane id="C_E_0" index="0" speed="13.89" length="242.80" shape="257.20,45.20 500.00,45.20"/>
        <lane id="C_E_1" index="1" speed="13.89" length="242.80" shape="257.20,48.40 500.00,48.40"/>
    </edge>
    <edge id="C_N" from="C" to="N" priority="2">
        <lane id="C_N_0" index="0" speed="9.00" length="39.60" shape="251.60,60.40 251.60,100.00"/>
    </edge>
    <edge id="C_S" from="C" to="S" priority="2">
        <lane id="C_S_0" index="0" speed="9.00" length="39.60" shape="248.40,39.60 248.40,0.00"/>
    </edge>
    <edge id="C_W" from="C" to="W" priority="3">
        <lane id="C_W_0" index="0" speed="13.89" length="242.80" shape="242.80,54.80 0.00,54.80"/>
        <lane id="C_W_1" index="1" speed="13.89" length="242.80" shape="242.80,51.60 0.00,51.60"/>
    </edge>
    <edge id="E_C" from="E" to="C" priority="3">
        <lane id="E_C_0" index="0" speed="13.89" length="242.80" shape="500.00,54.80 257.20,54.80"/>
        <lane id="E_C_1" index="1" speed="13.89" length="242.80" shape="500.00,51.60 257.20,51.60"/>
    </edge>
    <edge id="N_C" from="N" to="C" priority="2">
        <lane id="N_C_0" index="0" speed="9.00" length="39.60" shape="248.40,100.00 248.40,60.40"/>
    </edge>
    <edge id="S_C" from="S" to="C" priority="2">
        <lane id="S_C_0" index="0" speed="9.00" length="39.60" shape="251.60,0.00 251.60,39.60"/>
    </edge>
    <edge id="W_C" from="W" to="C" priority="3">
        <lane id="W_C_0" index="0" speed="13.89" length="242.80" shape="0.00,45.20 242.80,45.20"/>
        <lane id="W_C_1" index="1" speed="13.89" length="242.80" shape="0.00,48.40 242.80,48.40"/>
    </edge>

    <tlLogic id="C" type="static" programID="0" offset="0">
        <phase duration="42" state="rrrrGGGggrrrrGGGgg"/>
        <phase duration="3"  state="rrrryyyyyrrrryyyyy"/>
        <phase duration="42" state="GGggrrrrrGGggrrrrr"/>
        <phase duration="3"  state="yyyyrrrrryyyyrrrrr"/>
    </tlLogic>

    <junction id="C" type="traffic_light" x="250.00" y="50.00" incLanes="N_C_0 E_C_0 E_C_1 S_C_0 W_C_0 W_C_1" intLanes=":C_0_0 :C_1_0 :C_18_0 :C_19_0 :C_4_0 :C_5_0 :C_5_1 :C_20_0 :C_21_0 :C_9_0 :C_10_0 :C_22_0 :C_23_0 :C_13_0 :C_14_0 :C_14_1 :C_24_0 :C_25_0" shape="246.80,60.40 253.20,60.40 253.64,58.18 254.20,57.40 254.98,56.84 255.98,56.51 257.20,56.40 257.20,43.60 254.98,43.16 254.20,42.60 253.64,41.82 253.31,40.82 253.20,39.60 246.80,39.60 246.36,41.82 245.80,42.60 245.02,43.16 244.02,43.49 242.80,43.60 242.80,56.40 245.02,56.84 245.80,57.40 246.36,58.18 246.69,59.18">
        <request index="0"  response="000000000001100000" foes="000000000001100000" cont="0"/>
        <request index="1"  response="011110000011100000" foes="011111100011100000" cont="0"/>
        <request index="2"  response="011100010011100000" foes="011100010111100000" cont="1"/>
        <request index="3"  response="010000010000010000" foes="010000010000010000" cont="1"/>
        <request index="4"  response="000000000000000000" foes="010000010000001000" cont="0"/>
        <request index="5"  response="000000100000000100" foes="110000110000000111" cont="0"/>
        <request index="6"  response="000000100000000100" foes="110000110000000111" cont="0"/>
        <request index="7"  response="001110100000000100" foes="001111110000000110" cont="1"/>
        <request index="8"  response="001100000000000100" foes="001100000000000100" cont="1"/>
        <request index="9"  response="001100000000000000" foes="001100000000000000" cont="0"/>
        <request index="10" response="011100000011110000" foes="011100000011111100" cont="0"/>
        <request index="11" response="011100000011100010" foes="111100000011100010" cont="1"/>
        <request index="12" response="000010000010000010" foes="000010000010000010" cont="1"/>
        <request index="13" response="000000000000000000" foes="000001000010000010" cont="0"/>
        <request index="14" response="000000100000000100" foes="000000111110000110" cont="0"/>
        <request index="15" response="000000100000000100" foes="000000111110000110" cont="0"/>
        <request index="16" response="000000100001110100" foes="000000110001111110" cont="1"/>
        <request index="17" response="000000100001100000" foes="000000100001100000" cont="1"/>
    </junction>
    <junction id="E" type="priority" x="500.00" y="50.00" incLanes="C_E_0 C_E_1" intLanes=":E_0_0" shape="500.00,50.00 500.00,43.60 500.00,50.00">
        <request index="0" response="0" foes="0" cont="0"/>
    </junction>
    <junction id="N" type="priority" x="250.00" y="100.00" incLanes="C_N_0" intLanes=":N_0_0" shape="250.00,100.00 253.20,100.00 250.00,100.00">
        <request index="0" response="0" foes="0" cont="0"/>
    </junction>
    <junction id="S" type="priority" x="250.00" y="0.00" incLanes="C_S_0" intLanes=":S_0_0" shape="250.00,0.00 246.80,0.00 250.00,0.00">
        <request index="0" response="0" foes="0" cont="0"/>
    </junction>
    <junction id="W" type="priority" x="0.00" y="50.00" incLanes="C_W_0 C_W_1" intLanes=":W_0_0" shape="0.00,50.00 0.00,56.40 0.00,50.00">
        <request index="0" response="0" foes="0" cont="0"/>
    </junction>

    <junction id=":C_18_0" type="internal" x="249.06" y="54.89" incLanes=":C_2_0 S_C_0" intLanes=":C_5_0 :C_5_1 :C_7_0 :C_8_0 :C_9_0 :C_10_0 :C_14_0 :C_14_1 :C_16_0"/>
    <junction id=":C_19_0" type="internal" x="249.20" y="59.20" incLanes=":C_3_0 E_C_0 S_C_0 W_C_1" intLanes=":C_4_0 :C_10_0 :C_16_0"/>
    <junction id=":C_20_0" type="internal" x="253.56" y="50.89" incLanes=":C_7_0 W_C_0 W_C_1" intLanes=":C_1_0 :C_2_0 :C_10_0 :C_11_0 :C_12_0 :C_13_0 :C_14_0 :C_14_1"/>
    <junction id=":C_21_0" type="internal" x="256.00" y="50.80" incLanes=":C_8_0 N_C_0 S_C_0 W_C_0 W_C_1" intLanes=":C_2_0 :C_9_0 :C_14_0 :C_14_1"/>
    <junction id=":C_22_0" type="internal" x="250.94" y="45.11" incLanes=":C_11_0 N_C_0" intLanes=":C_0_0 :C_1_0 :C_5_0 :C_5_1 :C_7_0 :C_14_0 :C_14_1 :C_16_0 :C_17_0"/>
    <junction id=":C_23_0" type="internal" x="250.80" y="40.80" incLanes=":C_12_0 E_C_1 N_C_0 W_C_0" intLanes=":C_1_0 :C_7_0 :C_13_0"/>
    <junction id=":C_24_0" type="internal" x="246.44" y="49.11" incLanes=":C_16_0 E_C_0 E_C_1" intLanes=":C_1_0 :C_2_0 :C_3_0 :C_4_0 :C_5_0 :C_5_1 :C_10_0 :C_11_0"/>
    <junction id=":C_25_0" type="internal" x="244.00" y="49.20" incLanes=":C_17_0 E_C_0 E_C_1 N_C_0 S_C_0" intLanes=":C_0_0 :C_5_0 :C_5_1 :C_11_0"/>

    <connection from="C_E" to="E_C" fromLane="1" toLane="1" via=":E_0_0" dir="t" state="M"/>
    <connection from="C_N" to="N_C" fromLane="0" toLane="0" via=":N_0_0" dir="t" state="M"/>
    <connection from="C_S" to="S_C" fromLane="0" toLane="0" via=":S_0_0" dir="t" state="M"/>
    <connection from="C_W" to="W_C" fromLane="1" toLane="1" via=":W_0_0" dir="t" state="M"/>
    <connection from="E_C" to="C_N" fromLane="0" toLane="0" via=":C_4_0" tl="C" linkIndex="4" dir="r" state="O"/>
    <connection from="E_C" to="C_W" fromLane="0" toLane="0" via=":C_5_0" tl="C" linkIndex="5" dir="s" state="O"/>
    <connection from="E_C" to="C_W" fromLane="1" toLane="1" via=":C_5_1" tl="C" linkIndex="6" dir="s" state="O"/>
    <connection from="E_C" to="C_S" fromLane="1" toLane="0" via=":C_7_0" tl="C" linkIndex="7" dir="l" state="o"/>
    <connection from="E_C" to="C_E" fromLane="1" toLane="1" via=":C_8_0" tl="C" linkIndex="8" dir="t" state="o"/>
    <connection from="N_C" to="C_W" fromLane="0" toLane="0" via=":C_0_0" tl="C" linkIndex="0" dir="r" state="o"/>
    <connection from="N_C" to="C_S" fromLane="0" toLane="0" via=":C_1_0" tl="C" linkIndex="1" dir="s" state="o"/>
    <connection from="N_C" to="C_E" fromLane="0" toLane="1" via=":C_2_0" tl="C" linkIndex="2" dir="l" state="o"/>
    <connection from="N_C" to="C_N" fromLane="0" toLane="0" via=":C_3_0" tl="C" linkIndex="3" dir="t" state="o"/>
    <connection from="S_C" to="C_E" fromLane="0" toLane="0" via=":C_9_0" tl="C" linkIndex="9" dir="r" state="o"/>
    <connection from="S_C" to="C_N" fromLane="0" toLane="0" via=":C_10_0" tl="C" linkIndex="10" dir="s" state="o"/>
    <connection from="S_C" to="C_W" fromLane="0" toLane="1" via=":C_11_0" tl="C" linkIndex="11" dir="l" state="o"/>
    <connection from="S_C" to="C_S" fromLane="0" toLane="0" via=":C_12_0" tl="C" linkIndex="12" dir="t" state="o"/>
    <connection from="W_C" to="C_S" fromLane="0" toLane="0" via=":C_13_0" tl="C" linkIndex="13" dir="r" state="O"/>
    <connection from="W_C" to="C_E" fromLane="0" toLane="0" via=":C_14_0" tl="C" linkIndex="14" dir="s" state="O"/>
    <connection from="W_C" to="C_E" fromLane="1" toLane="1" via=":C_14_1" tl="C" linkIndex="15" dir="s" state="O"/>
    <connection from="W_C" to="C_N" fromLane="1" toLane="0" via=":C_16_0" tl="C" linkIndex="16" dir="l" state="o"/>
    <connection from="W_C" to="C_W" fromLane="1" toLane="1" via=":C_17_0" tl="C" linkIndex="17" dir="t" state="o"/>

    <connection from=":C_0" to="C_W" fromLane="0" toLane="0" dir="r" state="M"/>
    <connection from=":C_1" to="C_S" fromLane="0" toLane="0" dir="s" state="M"/>
    <connection from=":C_2" to="C_E" fromLane="0" toLane="1" via=":C_18_0" dir="l" state="m"/>
    <connection from=":C_18" to="C_E" fromLane="0" toLane="1" dir="l" state="M"/>
    <connection from=":C_3" to="C_N" fromLane="0" toLane="0" via=":C_19_0" dir="t" state="m"/>
    <connection from=":C_19" to="C_N" fromLane="0" toLane="0" dir="t" state="M"/>
    <connection from=":C_4" to="C_N" fromLane="0" toLane="0" dir="r" state="M"/>
    <connection from=":C_5" to="C_W" fromLane="0" toLane="0" dir="s" state="M"/>
    <connection from=":C_5" to="C_W" fromLane="1" toLane="1" dir="s" state="M"/>
    <connection from=":C_7" to="C_S" fromLane="0" toLane="0" via=":C_20_0" dir="l" state="m"/>
    <connection from=":C_20" to="C_S" fromLane="0" toLane="0" dir="l" state="M"/>
    <connection from=":C_8" to="C_E" fromLane="0" toLane="1" via=":C_21_0" dir="t" state="m"/>
    <connection from=":C_21" to="C_E" fromLane="0" toLane="1" dir="t" state="M"/>
    <connection from=":C_9" to="C_E" fromLane="0" toLane="0" dir="r" state="M"/>
    <connection from=":C_10" to="C_N" fromLane="0" toLane="0" dir="s" state="M"/>
    <connection from=":C_11" to="C_W" fromLane="0" toLane="1" via=":C_22_0" dir="l" state="m"/>
    <connection from=":C_22" to="C_W" fromLane="0" toLane="1" dir="l" state="M"/>
    <connection from=":C_12" to="C_S" fromLane="0" toLane="0" via=":C_23_0" dir="t" state="m"/>
    <connection from=":C_23" to="C_S" fromLane="0" toLane="0" dir="t" state="M"/>
    <connection from=":C_13" to="C_S" fromLane="0" toLane="0" dir="r" state="M"/>
    <connection from=":C_14" to="C_E" fromLane="0" toLane="0" dir="s" state="M"/>
    <connection from=":C_14" to="C_E" fromLane="1" toLane="1" dir="s" state="M"/>
    <connection from=":C_16" to="C_N" fromLane="0" toLane="0" via=":C_24_0" dir="l" state="m"/>
    <connection from=":C_24" to="C_N" fromLane="0" toLane="0" dir="l" state="M"/>
    <connection from=":C_17" to="C_W" fromLane="0" toLane="1" via=":C_25_0" dir="t" state="m"/>
    <connection from=":C_25" to="C_W" fromLane="0" toLane="1" dir="t" state="M"/>
    <connection from=":E_0" to="E_C" fromLane="0" toLane="1" dir="t" state="M"/>
    <connection from=":N_0" to="N_C" fromLane="0" toLane="0" dir="t" state="M"/>
    <connection from=":S_0" to="S_C" fromLane="0" toLane="0" dir="t" state="M"/>
    <connection from=":W_0" to="W_C" fromLane="0" toLane="1" dir="t" state="M"/>

</net>
