<?xml version='1.0' encoding='utf-8'?>
<additional><tlLogic id="C" type="static" programID="main" offset="0" currentPhase="0"><phase duration="10" state="Grrrrrrrrrrrrrrrrr" /><phase duration="3" state="yrrrrrrrrrrrrrrrrr" /><phase duration="10" state="rGrrrrrrrrrrrrrrrr" /><phase duration="3" state="ryrrrrrrrrrrrrrrrr" /><phase duration="10" state="rrGrrrrrrrrrrrrrrr" /><phase duration="3" state="rryrrrrrrrrrrrrrrr" /><phase duration="10" state="rrrGrrrrrrrrrrrrrr" /><phase duration="3" state="rrryrrrrrrrrrrrrrr" /><phase duration="10" state="rrrrGrrrrrrrrrrrrr" /><phase duration="3" state="rrrryrrrrrrrrrrrrr" /><phase duration="10" state="rrrrrGrrrrrrrrrrrr" /><phase duration="3" state="rrrrryrrrrrrrrrrrr" /><phase duration="10" state="rrrrrrGrrrrrrrrrrr" /><phase duration="3" state="rrrrrryrrrrrrrrrrr" /><phase duration="10" state="rrrrrrrGrrrrrrrrrr" /><phase duration="3" state="rrrrrrryrrrrrrrrrr" /><phase duration="10" state="rrrrrrrrGrrrrrrrrr" /><phase duration="3" state="rrrrrrrryrrrrrrrrr" /><phase duration="10" state="rrrrrrrrrGrrrrrrrr" /><phase duration="3" state="rrrrrrrrryrrrrrrrr" /><phase duration="10" state="rrrrrrrrrrGrrrrrrr" /><phase duration="3" state="rrrrrrrrrryrrrrrrr" /><phase duration="10" state="rrrrrrrrrrrGrrrrrr" /><phase duration="3" state="rrrrrrrrrrryrrrrrr" /><phase duration="10" state="rrrrrrrrrrrrGrrrrr" /><phase duration="3" state="rrrrrrrrrrrryrrrrr" /><phase duration="10" state="rrrrrrrrrrrrrGrrrr" /><phase duration="3" state="rrrrrrrrrrrrryrrrr" /><phase duration="10" state="rrrrrrrrrrrrrrGrrr" /><phase duration="3" state="rrrrrrrrrrrrrryrrr" /><phase duration="10" state="rrrrrrrrrrrrrrrGrr" /><phase duration="3" state="rrrrrrrrrrrrrrryrr" /><phase duration="10" state="rrrrrrrrrrrrrrrrGr" /><phase duration="3" state="rrrrrrrrrrrrrrrryr" /><phase duration="10" state="rrrrrrrrrrrrrrrrrG" /><phase duration="3" state="rrrrrrrrrrrrrrrrry" /></tlLogic></additional>